192
Lattice="12.942278 0.0 0.0 -1e-06 12.942278 0.0 -1e-06 -1e-06 12.942278" Properties=species:S:1:pos:R:3:force:R:3 potential=-30024.229963374404 cutoff=-1.0 nneightol=1.2 pbc="T T T"
O       13.18751944      -1.30046358     -19.38937051      -2.30727731      -0.20340359      -1.99241485
H       12.19176668      -1.64734982     -19.70010337       3.10939986       1.54943431       2.35969697
H       13.33965789      -1.23209388     -18.42796136      -0.91909232      -0.64079609      -0.47233432
O       27.25982317      26.19511862       0.65338039     -12.42310870      -2.21827086       5.15449662
H       27.97045525      26.44933536       0.34612370      11.72160886       3.32816476      -4.87424635
H       27.11906203      25.29684031       0.88102185       0.71114662      -1.30902586      -0.44286484
O        7.22385102      -0.12472548       8.81434605      -0.19745354      -0.19342051      -0.13344232
H        7.35408154       0.72025252       9.29298684       0.42052144      -0.54412775       0.22552742
H        7.93749941      -0.77283686       8.99828805       0.02481012       0.71094608       0.16703687
O       -1.65223942      -4.51222528      -1.34866633      -5.01267970       5.80652844      -0.16045691
H       -0.94853428      -5.03360771      -1.32443531       5.10800079      -3.21098415       0.34368864
H       -1.43481109      -3.51718162      -1.41600413      -0.31399703      -2.57780881       0.03113812
O        3.19712996      18.31328866      10.38986536      -0.28589847       1.32974895       6.02491796
H        3.15211285      17.49581570      10.04669394      -0.02777254      -4.12467202      -3.66174486
H        3.15483282      17.75267832      11.39429662       0.25369077       3.05917593      -1.80946542
O       -4.39941529       6.09151763       3.25106899      -1.14799251       4.08096326       3.67710977
H       -4.75863136       7.11939144       3.40177337       1.19362960      -3.24651166      -0.57918217
H       -4.51271742       5.95652452       2.35327752      -0.23272548      -0.74109484      -2.85127137
O       23.59437138      15.66645008       6.37954878      -2.15621471      -1.70432272       0.36001309
H       24.41036264      15.33518515       6.03420774       1.02618906      -0.09394195      -0.42761923
H       22.99830617      14.82378829       6.42521678       1.06386601       1.79641964       0.36761636
O        0.83875117     -19.35380981       3.26502868      -2.32908027       3.31249646       2.71365049
H        1.36545712     -20.04174018       3.00152489       2.13094590      -3.02249657      -0.60444069
H        1.00471173     -19.10059851       4.23717485      -0.10172159      -0.59003223      -1.66228518
O       17.39982295     -18.28582436       9.32976465      -1.44998403      -1.99066650       2.74865349
H       16.91758376     -18.92882759      10.07415823       1.69094784       1.98851706      -2.98585320
H       17.66134233     -18.93036220       8.66003797      -0.18352639       0.18225318       0.07350167
O        5.58197289     -15.46541566     -13.18286268      -4.48595832      -0.09522544       0.26033142
H        6.41405114     -15.68962804     -12.78026466       0.58259660      -0.91863467       1.27626486
H        4.70007261     -15.94612024     -12.69469670       4.15142692       1.37109230      -1.38019914
O       -6.13660353       2.76742218       4.16703770       1.23336857       1.03771275       2.96252301
H       -5.50767641       3.28560309       4.85695778      -1.53276328      -1.20762154      -2.39522448
H       -6.60534870       2.19678923       4.83272675      -0.15007068       0.84799103      -0.49256273
O       -5.13725766      15.49166285      26.07420163       1.74224135       1.01217141      -1.31676488
H       -5.91905877      15.33354470      26.58491056       0.23378529      -0.95252695       0.40631044
H       -4.31388967      14.95079082      26.17527448      -1.44563373      -0.17295864       0.98798247
O        5.17702532     -16.52837392      -8.94775162       0.54431801       0.08081389      -0.60124224
H        4.76955358     -16.81079580      -9.81057507      -0.06605216       0.27423851       0.48724569
H        4.64039730     -16.85556419      -8.22976398      -0.38077835      -0.12059092       0.33088403
O       14.12792026       7.05964734      18.97862316       1.21432184      -2.35464732      -0.14348505
H       13.33785868       6.77092825      19.49107837       0.96651890       0.17619617      -0.26767706
H       14.83061468       6.27530087      18.95062969      -1.85906201       2.03757885       0.41940507
O        1.54694903       1.62464812       3.16257998       0.75009370      -1.62905110       0.71885479
H        2.29283489       1.20575144       3.74867549      -1.67064641       0.25561241      -1.62747758
H        1.29168453       0.98535972       2.42531970       0.91649551       1.22959419       0.88765287
O      -18.07801647      13.16508232      17.15148009       3.97444245      -4.78220085       1.51159795
H      -17.18243696      12.95177099      16.71014630      -2.13361985       1.60290298       0.09448856
H      -18.62396860      13.83004641      16.87350330      -0.57694017       3.50651192      -1.74168599
O      -17.21408175       7.74424389      12.07910485       1.06316667      -1.34450709       4.04033983
H      -17.73299293       7.95787273      11.37508749      -1.93377827       1.18546892      -3.38225564
H      -16.28241236       7.82282671      11.93336945       1.27481990       0.56795674      -0.88453155
O      -11.16299326      33.68636289     -11.78165434       4.14287029       6.15928382       0.81141451
H      -11.60776671      33.33192000     -11.10563045      -3.01481411      -2.52207243       4.08471193
H      -11.26300776      33.28138357     -12.54933172      -1.22187060      -3.31175084      -5.03314568
O       36.34150955      11.09970367      19.42244409      -0.59150290      -0.35870903       2.74275538
H       35.77608370      11.93712661      19.62956405       1.09610765      -1.55346066      -0.13463583
H       36.47290425      10.52898605      20.30278330      -0.19261215       1.87365045      -2.53481996
O       31.24008248      -6.81442662       0.86432101      -5.65884426      -0.84336819       0.58977512
H       30.76212962      -7.48780462       0.29623499       0.86084141       0.89579298       0.61668429
H       32.11883416      -6.80648896       0.73381533       4.90015793      -0.56008402      -1.18129859
O       15.65613113       9.52111513      -6.59540017       4.24954537       7.01684964       2.11814181
H       15.79038338      10.03409952      -5.61187140      -0.31531806      -1.94090023      -3.70430690
H       15.17886620       8.81175308      -6.41553283      -3.55310545      -5.06600953       1.13234478
O       -8.05312463       2.95170815      34.59305512       2.24340082       0.43488105       0.10640614
H       -7.34471510       2.57449476      35.17774303      -1.39534294       0.25038999      -0.59358549
H       -8.91346094       2.61215101      34.83441285      -0.59372433      -0.70064110       0.50113787
O        5.65939152       0.24437774       1.02953014       0.25073092      -0.98851726      -3.81811936
H        5.63605480       0.38225751       1.96441693      -0.09169377      -1.58006644       0.38776815
H        5.77348212      -0.66763643       0.51248114      -0.32853045       2.26624250       3.05470221
O       23.40725432       0.58473023      16.11042976      -0.69469156       4.35981999       1.16592339
H       23.84758268       1.51115549      16.40444062      -1.28148934      -2.78995055      -1.17431547
H       24.08909916      -0.02834749      15.99723876       1.93532607      -1.56331313       0.11769329
O       -2.11036930      32.98012299      17.17090089      10.60220187       3.30418151       1.87089422
H       -2.82364726      32.56921688      16.99823037      -8.40231440      -4.70066602      -2.38584509
H       -1.35731309      32.40173229      16.82402523      -1.48789752       1.40007377       0.61087359
O        1.75341810      16.26584911       7.42488545      -1.43255709      -0.11618405      -2.57024977
H        2.17773885      16.92668561       6.87268903       1.09429759       0.79776710       0.44252391
H        1.31466140      15.82520325       6.62926751       0.04123176      -0.35529203       1.84205673
O       -6.16105151       9.03982846      10.37642426       4.27818746       2.97487973       1.53404883
H       -6.71298334       8.44318115       9.96356020      -3.21909856      -1.25529494      -0.61779500
H       -6.38859771       9.72331374      11.05244814      -1.19800562      -1.79014615      -1.09803598
O       13.23683875      19.39228099      25.16237638       0.30565740       0.28353408      -0.64337234
H       12.62521573      18.70583231      25.37679898      -1.30203246      -0.66903195       1.76783412
H       13.45422475      18.97433683      24.34061709       1.10695256       0.21126705      -1.27154432
O        3.74311913      14.38525914      12.43455318       1.21576166      -1.39028815      -0.20688383
H        3.81076385      14.06505401      11.51844160      -0.21323549       0.36972467       0.43532225
H        4.48992576      13.85142517      12.87805660      -1.11237759       1.24870778      -0.11100070
O        0.77153508     -14.79240808       9.24668383      -3.35186519       0.93729573       2.83767023
H        0.42551563     -14.76796010      10.22370371       0.85062384       0.18279002      -2.70953158
H        1.65599129     -15.07123156       9.26525795       2.35071868      -0.98242888       0.06561610
O        0.50557591      10.45109116       0.81424497      -1.33071055       3.79743741       0.64584060
H        0.80949296       9.60599516       0.63012306       0.83525893      -2.59594023       0.44796900
H        0.23073873      10.66535501       1.74584029       0.19381697      -1.05348390      -0.95211043
O        0.38614220       1.55028814       5.71029837      -0.34605714      -3.29357828       1.46780178
H        0.72982533       1.32656789       4.85401555       0.34543082       0.58444779      -1.12041486
H        0.37423783       0.54411059       6.04299208      -0.29936385       2.50698520      -0.09320507
O      -18.41187437      28.08655673     -15.54542725       1.87812931       5.14089548       1.51508437
H      -18.42034121      29.11337219     -15.86769618       0.24970659      -3.31361232       0.34563240
H      -17.86126548      28.36553895     -14.67037982      -2.38055376      -1.80924431      -2.22579391
O        4.91544774      30.67333369      -9.68023872       0.34800450       1.19802619      -2.46518420
H        5.58821718      29.99111843      -9.43332463      -0.31643135       0.48603932      -0.58902436
H        5.12965867      31.14557143     -10.63535067       0.04718643      -1.39158913       2.98622344
O      -21.61990538      21.56137838       1.56193533      -1.26015947       4.18234187       0.77557333
H      -21.01156325      20.88535449       1.49446524       0.98547821      -2.97020032      -0.79371504
H      -22.57469982      21.37727762       1.49380377       0.08377940      -1.21633758      -0.20481924
O        7.89103765      17.88084504       9.48338480       4.83943361       0.16807611       0.34694315
H        8.68734352      18.25857173       8.93039461      -2.14438763      -1.45263741       1.45646835
H        7.10970750      18.08944670       9.07824672      -2.57753627       1.19509513      -1.57883745
O       -9.68156166      -7.93898111       5.84846653       2.92618303       1.83906396       4.84019466
H       -9.31076719      -8.04910288       5.03003577       0.97029328      -0.60749516      -3.78135259
H       -8.60669691      -7.65333125       6.38177133      -4.28175101      -0.93834475      -0.80628773
O      -23.44921808       1.78434851       9.23520068       3.03774835      -6.24176482       4.32884848
H      -23.40021627       0.79336364       8.96272734      -0.36467502       3.10408282       0.60843104
H      -23.83805749       2.27348818       8.60876070      -2.38308373       2.58854574      -4.40782763
O      -10.54851269      -8.79720071      15.36026815       2.09683250       2.98760155      -0.89771617
H       -9.59773999      -8.43148634      15.59850373      -1.96968630      -1.67918761       0.54525903
H      -10.88702735      -9.44787701      15.95336997       0.20631870      -1.10634064       0.35435564
O        7.82298546       9.72521878      13.87873071      -1.34799865       2.79785926      -1.49091600
H        7.75101736       9.57572622      14.79246100       0.36262431      -0.83902302       1.95428025
H        8.37354143       9.13142903      13.43580938       1.25275469      -2.15341220      -0.74433957
O       -9.81782479       0.00423924      17.65933146      -0.16787145      -3.59677307       0.92419853
H       -8.91076214      -0.28346859      17.30726986      -1.26243233       0.38659367       0.18107201
H      -10.26053445      -0.91063990      17.98662756       1.52090535       3.24858911      -1.01847575
O       21.53036859       4.41927002      18.75748001      -4.33759537       0.14875119       2.16281216
H       22.21231926       3.82909455      18.84400048       3.21992645      -2.14838313       0.14221133
H       21.70118700       5.05130340      18.13024626       0.82470712       2.04469567      -2.57502688
O       -1.50161442     -16.29802308      -4.22526836      -0.35311482       0.14224321      -0.40021024
H       -0.58674111     -16.09720033      -4.09632375       1.05121618       1.40690262       0.47677975
H       -1.35856724     -17.13094801      -4.66498816      -0.97107489      -1.38387582      -0.58585161
O       31.24241086     -11.33598129      -6.72642445      -0.24960169       0.14324234       0.27353815
H       30.98761203     -10.77526512      -5.97642158       0.40126799       0.03809347       0.05776395
H       30.45938734     -11.86997402      -6.84697101      -0.21430198      -0.32590227      -0.33053334
O        4.94800272      -0.92906585      10.43849674       4.98738004      -1.31650263       0.95090716
H        5.90307762      -0.87709535       9.96779362      -3.14535931       0.70215805      -0.10202395
H        5.44676811      -1.36451519      11.24432780      -2.57384931       0.74368137      -1.15626632
O      -17.20529741      -1.03665816      25.12528106       2.43782252      -0.10226152      -3.70260483
H      -16.63844278      -1.39973193      24.29860042      -2.34165811       0.95286119       2.48725969
H      -17.38537642      -1.81086029      25.62789357      -0.22025768      -1.00064772       0.99647739
O        5.36257602      -7.38122833      -5.36993158       1.35752715       2.53094274      -3.18963371
H        5.37173079      -8.14033304      -4.86034451      -0.49046676      -3.17764723       1.74453992
H        6.18539367      -7.41186769      -5.91598955      -0.79904236       0.08338860       0.69164738
O       10.49538329       9.81491432       4.13196912       1.90049791      -3.09234830      -0.00637994
H       10.40203643      10.02272221       5.05307085      -0.57242017       1.29856661       1.09333600
H       10.97772832       8.90700498       4.29364335      -1.59749852       1.63545829      -1.29844320
O        9.07406622      10.79309839      -3.55350435      -2.60610638      -0.42928479       0.65319910
H        8.31760740      10.07294113      -3.53702048       2.91086954       1.39323978      -0.14830227
H        9.96525356      10.59243440      -3.87708563      -0.62628479      -1.24184293       0.25374168
O       12.41571448      24.39528109      16.13657112      -0.64444192       0.60272320      -2.58684881
H       11.99750573      23.70242937      16.59986576      -2.19144911      -1.71700854       0.49130597
H       13.10078729      24.53228507      16.71258051       3.04691691       1.22457026       2.02548438
O       -4.69295518       5.45475869       0.42605274       1.34960816      -2.07545121      -1.35950690
H       -4.44626334       6.14067819      -0.18701176      -0.25560213       2.06067251      -0.12274088
H       -4.32476955       4.74437533      -0.17160212      -1.42998599       0.00108295       1.62667540
O        8.95838809     -12.38936145       6.72361981      -3.16845811      -1.40212037      -1.79567402
H        8.61283537     -12.61341508       5.73744516       0.55656161       1.00728631       2.68919929
H        8.06005685     -12.49990657       7.26809024       2.54415821       0.27391713      -1.08713450
O       -1.44640007       7.14463320      20.34913922       0.99770638       0.63728397       2.81592898
H       -1.82341237       6.34541685      20.77168722       0.06251175      -0.31900708      -0.06547520
H       -1.61436092       7.08600036      19.45768729      -0.92317009      -0.16279301      -3.21292791
O       24.79877872      24.32103753      -1.27742320      -1.70004955       0.99364404      -2.73322687
H       25.24725640      24.18831989      -0.45179192       0.17485663       0.71081752       1.36598094
H       24.21779506      25.12877363      -1.46999608       1.93256471      -1.92040853       1.46926731
O       12.83789205       4.26671881     -15.84446530       2.31466667       0.07234314      -1.64576841
H       13.64240017       3.98791650     -16.37216081      -1.44283636       1.37902158      -0.19639322
H       12.93780071       3.53554937     -15.27152513      -1.03953309      -1.41738244       2.04620234
O       -7.45578940      25.02902372       3.57345962      -6.18607472      -3.69452642      -0.45276359
H       -6.68070353      25.34430750       3.82899400       5.68995461       1.87800075       1.97928166
H       -7.54183361      24.13392047       4.03036710       0.10323494       1.14130250      -1.19280170
O        3.32427536     -15.64374838      21.86745447       0.09612893       4.92207916       1.75587334
H        3.58847767     -16.52620430      21.92312392       1.29343983      -2.35074439       0.80321269
H        3.83324330     -14.96439068      22.56279333      -0.70124273      -2.48627239      -2.22683263
O       -0.93531543      15.99554539       3.30605579       0.76314462      -5.16205567       3.59370832
H       -0.05495188      15.53616665       3.51837227      -1.77389164       1.29935851      -0.84807331
H       -0.78312935      16.72364031       2.81953556       0.87395403       3.68522417      -2.90539823
O       -5.00491043      -4.12891577       3.52078003      -8.56192850      -3.61442627      -1.59834698
H       -5.98652887      -3.81128244       3.77326106       3.02412665      -0.54359296      -0.06882947
H       -4.28756310      -3.67738473       3.72185149       5.16483246       3.97355285       2.11901084
O       -2.21867600       4.83727239       8.38851715       0.93084227       1.12699174       2.93592237
H       -1.52966081       4.62846964       9.16206839      -1.61810334      -0.22454680      -2.67514050
H       -2.31203344       4.18153186       7.71005905       0.52065358      -1.21266091      -0.22198547
O       11.47256193      -8.44254614       0.53234698      -4.64100100       1.99063565       0.49165873
H       11.51045102      -9.26763925       0.02668799      -0.28378656       0.28270927       0.33809907
H       10.37483673      -8.08667447       0.64916814       4.97846346      -1.95241363      -0.57779378
O       12.39634659       2.14166484      25.14369642      -0.89510393      -4.55259104      -0.48202018
H       11.44001753       1.78465014      25.36531584       2.39271508       0.70300137      -0.31577623
H       12.90075831       1.19450113      25.04145939      -1.51804114       3.72908720       0.72565279
O       10.07251779      13.86110911      26.32497871      -0.77380956       0.11032090      -3.36847452
H       10.34419737      13.74834145      27.20383622       0.34813614      -0.47218108       2.33154853
H        9.67812201      13.02707291      25.93375800       0.10356816       0.77468373       0.78287012
O       -9.53783713       4.27876288      12.89387900      -1.87378929       3.69222272       2.47060923
H       -9.48497233       3.37857424      12.80508307       0.71794462      -4.09742347      -0.68040137
H      -10.13586030       4.31414896      13.78765931       1.20775524      -0.05025119      -2.23043218
